5
    0
    C       5.645485504284033      5.809952573994303      5.643470626257727
    H       6.687869276210304      5.485952765895316      5.606595685214734
    H       5.000000000000000      5.000000000000000      5.296736206555689
    H       5.381640388433762      6.071470668409779      6.670550682270448
    H       5.512432259501047      6.682387003328163      4.999999999999999
5
    1
    C       5.685325487619800      5.812821882517500      5.675771152812700
    H       6.734478897445200      5.486221498227700      5.639662822010600
    H       5.035439682230800      4.997867415616600      5.326137179806200
    H       5.418751008457700      6.076040015952500      6.709336938317600
    H       5.552136044246600      6.691195547685700      5.028257627052900
5
    2
    C       5.645509773891700      5.809981686634000      5.643456620490000
    H       6.694769087552300      5.483795192284400      5.606468989105500
    H       4.995690623557500      4.994658186313200      5.294395215855700
    H       5.379988072505700      6.073167805309600      6.677331102576300
    H       5.511469872492800      6.688160139458900      4.995701281972500
5
    3
    C       5.627306255963100      5.808664086098900      5.628632834248200
    H       6.717964717622200      5.513699036300600      5.615672497682300
    H       5.061964943773100      5.006739767399700      5.306456260980500
    H       5.423728844273300      6.100835782455000      6.783639179896300
    H       5.595166364758500      6.634207676414900      5.044764950343000
5
    4
    C       5.685262501283900      5.812867958101300      5.675798379061100
    H       6.734419673631000      5.486253958564600      5.639796424096900
    H       5.035421596714300      4.997870678159500      5.326018039156200
    H       5.418920992369200      6.075965656191900      6.709485190300200
    H       5.552106356001600      6.691188108982600      5.028067687385600
5
    5
    C       5.685325487619800      5.812821882517500      5.675771152812700
    H       6.734478897445200      5.486221498227700      5.639662822010600
    H       5.035439682230800      4.997867415616600      5.326137179806200
    H       5.418751008457700      6.076040015952500      6.709336938317600
    H       5.552136044246600      6.691195547685700      5.028257627052900
5
    6
    C       5.627306255963100      5.808664086098900      5.628632834248200
    H       6.717964717622200      5.513699036300600      5.615672497682300
    H       5.061964943773100      5.006739767399700      5.306456260980500
    H       5.423728844273300      6.100835782455000      6.783639179896300
    H       5.595166364758500      6.634207676414900      5.044764950343000
5
    7
    C       5.685262501283900      5.812867958101300      5.675798379061100
    H       6.734419673631000      5.486253958564600      5.639796424096900
    H       5.035421596714300      4.997870678159500      5.326018039156200
    H       5.418920992369200      6.075965656191900      6.709485190300200
    H       5.552106356001600      6.691188108982600      5.028067687385600
